19
ACANIL01
C                 -2.329831314000000        -1.483409172000000         0.000000000000000
C                 -0.944886709000000        -1.637609869000000         0.000000000000000
C                 -0.103030327000000        -0.520772579000000         0.000000000000000
C                 -0.677624321000000         0.760032325000000         0.000000000000000
C                 -2.062859173000000         0.913053714000000         0.000000000000000
C                 -2.886359357000000        -0.208325899000000         0.000000000000000
N                  1.330484555000000        -0.765804152000000         0.000000000000000
C                  2.456823216000000        -0.062269588000000         0.000000000000000
C                  2.525133903000000         1.454746579000000         0.000000000000000
O                  3.497588907000000        -0.707464076000000         0.000000000000000
H                 -2.971919180000000        -2.353036358000000         0.000000000000000
H                 -0.535720519000000        -2.638432120000000         0.000000000000000
H                 -0.078584976000000         1.653536987000000         0.000000000000000
H                 -2.498458594000000         1.902388005000000         0.000000000000000
H                 -3.960594477000000        -0.088641933000000         0.000000000000000
H                  1.577705811000000        -1.757830599000000         0.000000000000000
H                  3.576285234000000         1.793485483000000         0.000000000000000
H                  2.042923660000000         1.873176626000000         0.900004342000000
H                  2.042923660000000         1.873176626000000        -0.900004342000000
