10
Acetone
C                  0.000000000000000         0.000000000000000        -0.603434329000000
O                  0.000000000000000         0.000000000000000        -1.834634416000000
C                  0.000000000000000        -1.323673822000000         0.156333936000000
C                  0.000000000000000         1.323673822000000         0.156333936000000
H                  0.000000000000000        -2.189491617000000        -0.531508890000000
H                  0.896215877000000        -1.412822337000000         0.797104664000000
H                 -0.896215877000000        -1.412822337000000         0.797104664000000
H                 -0.896215877000000         1.412822337000000         0.797104664000000
H                  0.000000000000000         2.189491617000000        -0.531508890000000
H                  0.896215877000000         1.412822337000000         0.797104664000000
