16
ACTHCP
C                 -0.015360750000000        -0.824285507000000         0.503342927000000
C                 -1.463055730000000        -0.955234528000000         0.079277940000000
C                 -0.989507735000000         1.248986483000000        -0.007364062000000
C                  1.083269238000000        -1.379471540000000        -0.401448071000000
C                  1.463337302000000         1.255163550000000         0.111799940000000
N                  0.152728245000000         0.631136477000000         0.321809947000000
N                 -1.964786768000000         0.336314499000000        -0.034339063000000
S                  2.490718365000000        -0.253906488000000        -0.045902062000000
O                 -2.104383707000000        -1.989817500000000        -0.069547065000000
O                 -1.137181759000000         2.471602440000000        -0.230761066000000
H                  0.092706248000000        -1.085241556000000         1.553213954000000
H                 -2.918994665000000         0.557406485000000        -0.297026068000000
H                  0.792220235000000        -1.298946500000000        -1.443680048000000
H                  1.301314235000000        -2.418118477000000        -0.180222064000000
H                  1.479137301000000         1.823249459000000        -0.811637044000000
H                  1.737840295000000         1.881162524000000         0.952481925000000
