106
Alanine 10 3-10 helix - conformation A.
C                 -5.929442897100000         0.381296154500000        -3.784849124700000
O                 -6.022971543400000         1.630228505900000        -3.647097783600000
N                 -6.294706082600000        -0.474130925800000        -2.782264397300000
H                 -6.184264974900000        -1.498490739800000        -2.958094380600000
C                 -6.824312052500000        -0.036696831200000        -1.484520644900000
H                 -6.956251262700000         1.068312647900000        -1.470312385800000
C                 -5.858554760600000        -0.410128652200000        -0.389057687300000
O                 -5.341697507900000         0.509242810800000         0.302150356200000
C                 -8.202996038300000        -0.655114184100000        -1.243610401800000
H                 -8.594152400400001        -0.343760492600000        -0.251338110600000
H                 -8.910540284600000        -0.304929839600000        -2.024931732900000
H                 -8.158484979200001        -1.763908297700000        -1.282705466000000
N                 -5.499039250800000        -1.719407934600000        -0.184494048100000
H                 -5.957372760200000        -2.464412346500000        -0.757145316600000
C                 -4.458432525100000        -2.138867109600000         0.763745031400000
H                 -4.142575452900000        -1.280836066500000         1.396812674200000
C                 -3.219048581400000        -2.645267231100000         0.051975077300000
O                 -2.215533627800000        -2.946705466100000         0.755646088300000
C                 -5.021832882300000        -3.215423141700000         1.692635365900000
H                 -4.272243221400000        -3.492280012200000         2.464666291300000
H                 -5.927416650200000        -2.831099827000000         2.208547094700000
H                 -5.297250803900000        -4.123106674300000         1.113586892500000
N                 -3.135269164200000        -2.699794722200000        -1.321341585300000
H                 -3.962567099200000        -2.454038832400000        -1.908158863400000
C                 -1.893837882900000        -3.010656415600000        -2.041700169000000
H                 -1.154196978600000        -3.455035971500000        -1.344253262500000
C                 -1.266636625500000        -1.765790040000000        -2.638611737800000
O                 -0.111144520700000        -1.862976828100000        -3.135934174900000
C                 -2.174155428400000        -4.046930693700000        -3.130865020700000
H                 -1.229120853800000        -4.344676356600000        -3.633604550200000
H                 -2.630529872600000        -4.953611037600000        -2.679695593600000
H                 -2.872736179400000        -3.633554631600000        -3.889972879300000
N                 -1.894618419400000        -0.542368344300000        -2.593993129700000
H                 -2.878067058300000        -0.471187778000000        -2.250193105600000
C                 -1.247673526600000         0.722344982800000        -2.965236627800000
H                 -0.244531951700000         0.536188289400000        -3.403282236900000
C                 -1.058746987000000         1.625925436800000        -1.759373936700000
O                 -0.519360638500000         2.752642141200000        -1.938168271500000
C                 -2.094291058600000         1.422794891700000        -4.030334830000000
H                 -1.582167283200000         2.340129873800000        -4.391537366700000
H                 -2.246595659200000         0.745004189100000        -4.897184631100000
H                 -3.086639217600000         1.702345031500000        -3.615969169800000
N                 -1.417520291000000         1.231476207800000        -0.490496215200000
H                 -1.823689196000000         0.283049397400000        -0.338325749100000
C                 -1.294480843800000         2.086249283700000         0.696686319700000
H                 -0.925067573000000         3.098137633500000         0.417908152800000
C                 -0.323619762900000         1.477331733900000         1.676500889500000
O                  0.672381075600000         2.157020719500000         2.045398482400000
C                 -2.666604910900000         2.272931818000000         1.346162643100000
H                 -2.583203114800000         2.939953615500000         2.230793904900000
H                 -3.365298226000000         2.739028909100000         0.619257364000000
H                 -3.088886454600000         1.298371390200000         1.670615577400000
N                 -0.505373104900000         0.200817115300000         2.149897932400000
H                 -1.301585553100000        -0.369370162800000         1.784892629500000
C                  0.367047188600000        -0.418668139300000         3.155121430900000
H                  0.963652210100000         0.363925045300000         3.672510727900000
C                  1.346799023800000        -1.395531316000000         2.537765750300000
O                  2.210657296600000        -1.919179987700000         3.294088578100000
C                 -0.490379611100000        -1.113865515400000         4.215051806700000
H                  0.149655329200000        -1.516337801500000         5.029144242100000
H                 -1.203092612000000        -0.386801579300000         4.659402690400000
H                 -1.066998377700000        -1.949040348600000         3.761695502800000
N                  1.356122075700000        -1.673561586800000         1.189777072000000
H                  0.590528795500000        -1.311465747600000         0.577984439700000
C                  2.397653038700000        -2.484343393400000         0.540400093400000
H                  3.119347212700000        -2.868586373800000         1.293463569400000
C                  3.198031734600000        -1.686554778900000        -0.473283259300000
O                  4.153483650400000        -2.268029864000000        -1.057683685300000
C                  1.750818275600000        -3.694285219400000        -0.134701140600000
H                  2.531187120800000        -4.401016160400000        -0.489455942300000
H                  1.096364012000000        -4.229160997800000         0.586209568100000
H                  1.144103880500000        -3.369843720900000        -1.004623375700000
N                  2.930144636900000        -0.364553357400000        -0.748371360600000
H                  2.153013324600000         0.122183915400000        -0.251165466800000
C                  3.668132146100000         0.420431069500000        -1.747856784900000
H                  4.455655782100000        -0.198465705000000        -2.231915200900000
C                  4.336301208200000         1.603213382800000        -1.091800955000000
O                  5.590918427200000         1.713996713700000        -1.168756559200000
C                  2.719295633200000         0.876825423100000        -2.856482156700000
H                  3.274282068000000         1.465293277400000        -3.618056446400000
H                  2.273107549500000        -0.009816002600000        -3.354729354900000
H                  1.900763966900000         1.502531781000000        -2.445588775300000
N                  3.600238979300000         2.551437015100000        -0.424756358900000
H                  2.570345442500000         2.405925939700000        -0.320018966000000
C                  4.222824564800000         3.669694919400000         0.295099031300000
H                  4.926066767200000         4.193432465500000        -0.391126427300000
C                  4.982495747800000         3.159895445700000         1.493560342000000
O                  6.214140560600000         3.415508464900000         1.592276174500000
C                  3.164889027300000         4.691071973100000         0.724161251100000
H                  3.648925249800000         5.548458690100000         1.238964527500000
H                  2.629525545400000         5.075730880400000        -0.169862417300000
H                  2.423092361900000         4.232363159200000         1.411423131400000
N                  4.359435469700000         2.382052938300000         2.436015425200000
H                  3.368261843200000         2.098571492600000         2.262689964700000
C                  5.102744537100000         1.681398571000000         3.488582609400000
H                  5.835883021900000         2.381589748200000         3.949166813300000
C                  5.837076675300000         0.502211082600000         2.902744529900000
O                  7.087745004300000         0.421315832200000         3.034968423200000
C                  4.153554870600000         1.228169932900000         4.601318153000000
H                  4.726481661600000         0.729637812200000         5.412215775600000
H                  3.630094928900000         2.108616936600000         5.030873603800000
H                  3.393433387800000         0.519425799400000         4.212172423300000
N                  5.170774583800000        -0.458695587400000         2.201008098100000
H                  4.141894042300000        -0.388969882600000         2.043113459000000
H                  5.686516359100000        -1.265429819000000         1.784040183900000
H                 -5.539781218200000        -0.018360817900000        -4.712040352900000
