206
Alanine 20 3-10 helix - conformation A.
C                -10.056956727899999         0.491937300800000        -8.444146913000001
O                 -9.357371841699999        -0.154007378600000        -7.682949900100000
N                 -9.554104158800000         0.961734923500000        -9.710132440400001
H                -10.146774063400001         0.488515524800000       -10.429872670900000
C                 -8.138726189000000         0.602953889600000        -9.963936966500000
H                 -7.974742935500000        -0.491119406200000        -9.804130643900001
C                 -7.177936833200000         1.326561085100000        -9.026809000700000
O                 -6.287616604300000         0.698965339300000        -8.479432928500000
C                 -7.816981863000000         0.939211702100000       -11.428860670400001
H                 -6.746477509900000         0.730045426200000       -11.643617363700001
H                 -8.437572134800000         0.323566905800000       -12.113130907600000
H                 -8.020204850600001         2.012974153500000       -11.628610989200000
N                 -7.294332112800000         2.669441656300000        -8.796297718600000
H                 -8.123973329400000         3.146219273300000        -9.212360011900000
C                 -6.457228860600000         3.380415256500000        -7.816152685900000
H                 -5.381786149200000         3.188859348400000        -8.043835227500001
C                 -6.698746085500000         2.879656623600000        -6.399097810100000
O                 -5.739738044000000         2.608078688800000        -5.689244435800000
C                 -6.730679341700000         4.885338212300000        -7.932315049600000
H                 -6.076190581500000         5.448160583000000        -7.232497110000000
H                 -6.525818928400000         5.229953122100000        -8.968209161700001
H                 -7.790762352800000         5.104864091400000        -7.680133390000000
N                 -8.045039796699999         2.727377141400000        -5.903498445200000
H                 -8.535136317499999         2.047728119000000        -6.525600470500000
C                 -8.123659663800000         2.298101226100000        -4.490128037400000
H                 -7.515728862800000         3.000586503900000        -3.873863768000000
C                 -7.577511082000000         0.895783672800000        -4.174086454500000
O                 -7.423269306800000         0.599117508200000        -2.999655541800000
C                 -9.586651295499999         2.426754232900000        -4.052088963600000
H                 -9.683061942500000         2.203455988200000        -2.967117083600000
H                 -9.952401616400000         3.458278873300000        -4.240935570300000
H                -10.219351904300000         1.709380003700000        -4.618044401500000
N                 -7.261603022400000        -0.024136024300000        -5.140411571800000
H                 -7.416587935300000         0.214432915500000        -6.142176229800000
C                 -6.810519931600000        -1.393172833800000        -4.836701720100000
H                 -6.847274656900000        -1.574636324200000        -3.740812812600000
C                 -5.359789903200000        -1.654787540300000        -5.234518581900000
O                 -4.819894474200000        -2.670291667700000        -4.826225730600000
C                 -7.770563847300000        -2.368398160900000        -5.527351520300000
H                 -7.493090651100000        -3.418602359800000        -5.294282690500000
H                 -8.811412318000000        -2.180259428600000        -5.188260179900000
H                 -7.736082506400000        -2.223725765500000        -6.630320601200000
N                 -4.656573293100000        -0.791206497800000        -6.030217595200000
H                 -5.162670338600000         0.028372941800000        -6.423987536200000
C                 -3.276955139900000        -1.028290846000000        -6.481737504000000
H                 -2.869064419900000        -1.961665688900000        -6.026436130200000
C                 -2.354468927800000         0.099296688800000        -6.046784287000000
O                 -1.405690751500000        -0.153353203900000        -5.318223895700000
C                 -3.300170094800000        -1.188996902800000        -8.005278138500000
H                 -2.277537884100000        -1.375900579400000        -8.395044736799999
H                 -3.955726677200000        -2.043208825400000        -8.279181352300000
H                 -3.711286526700000        -0.273787944100000        -8.486563603700001
N                 -2.580284696900000         1.451035656200000        -6.503352492800000
H                 -3.588847328400000         1.679359526100000        -6.376333804200000
C                 -1.755391545300000         2.459087567800000        -5.802947939200000
H                 -0.680530645500000         2.178106308500000        -5.902803919900000
C                 -2.008262336300000         2.591928457200000        -4.293197692900000
O                 -1.215402991900000         3.248668148200000        -3.638550080700000
C                 -1.970740756200000         3.800962680800000        -6.513270255500000
H                 -1.301211715900000         4.576236989100000        -6.081424652000000
H                 -1.752313635700000         3.698065504700000        -7.597442366900000
H                 -3.024946480400000         4.132434289700000        -6.387122608700000
N                 -3.079040539000000         2.015635305000000        -3.659717702500000
H                 -3.753956183700000         1.441653656800000        -4.206430176700000
C                 -3.388792808300000         2.224716103200000        -2.240096515300000
H                 -2.619713163600000         2.868881361700000        -1.752702069500000
C                 -3.381677457100000         0.909892766800000        -1.477055651100000
O                 -2.642699691000000         0.799285225900000        -0.511025750100000
C                 -4.737292228000000         2.947624346900000        -2.155020328000000
H                 -5.048886472100000         3.082530384000000        -1.097467412600000
H                 -4.652805420300000         3.945421452000000        -2.636782573000000
H                 -5.518173660700000         2.379476751300000        -2.701449457100000
N                 -4.242410018900000        -0.180865808000000        -1.873535354000000
H                 -5.213367007700000         0.198557530600000        -1.806983777900000
C                 -4.130777196800000        -1.371063659000000        -0.997953938900000
H                 -4.146046590100000        -1.077923099900000         0.081023785200000
C                 -2.823560368500000        -2.118566378800000        -1.223576219300000
O                 -2.226626327300000        -2.574579016800000        -0.258504805200000
C                 -5.331332015800000        -2.294619185000000        -1.261189198900000
H                 -5.283185566200000        -3.184364733700000        -0.596775036000000
H                 -6.289034277000000        -1.764713780400000        -1.067843782900000
H                 -5.326614769300000        -2.644888990800000        -2.314467708400000
N                 -2.318161595700000        -2.312167656800000        -2.561390873700000
H                 -3.046638753600000        -2.868423729800000        -3.061394279800000
C                 -1.021318792500000        -3.020929770300000        -2.617593606100000
H                 -1.065519334200000        -3.972099823900000        -2.030974331500000
C                  0.110159994700000        -2.195163805000000        -2.010882634500000
O                  0.994852349100000        -2.770696266300000        -1.395461100200000
C                 -0.718622997700000        -3.356130367200000        -4.084349789400000
H                  0.260788842200000        -3.874535018400000        -4.167607482800000
H                 -1.506051443600000        -4.016586431700000        -4.505996869600000
H                 -0.682124987300000        -2.425001463600000        -4.687889099700000
N                  0.097567623900000        -0.755716930100000        -2.045184913900000
H                 -0.663107853000000        -0.457147961000000        -2.701654096900000
C                  1.405417672400000        -0.173734560900000        -2.422681911800000
H                  2.239807985500000        -0.906101261700000        -2.292653178800000
C                  1.732425834800000         0.975984859200000        -1.490585829100000
O                  2.771072720800000         0.957397019400000        -0.852000403100000
C                  1.385270027200000         0.273980576100000        -3.894627375800000
H                  2.371949870200000         0.694013328800000        -4.184388104200000
H                  1.157605255300000        -0.589242547500000        -4.555519184400000
H                  0.608820940900000         1.051241294300000        -4.064507066000000
N                  0.851931731900000         2.007313306000000        -1.324337537900000
H                 -0.059675112900000         1.945293067700000        -1.830795129300000
C                  1.015464116400000         3.039244347600000        -0.291949063700000
H                  2.094237717400000         3.179500031400000        -0.053665382600000
C                  0.354141671200000         2.625863157700000         1.020892528300000
O                  0.103399262100000         3.480223655300000         1.858217819700000
C                  0.462700080100000         4.356986242800000        -0.853233642900000
H                  0.622211827700000         5.185067427000000        -0.129647198300000
H                  0.969954330200000         4.606316591800000        -1.809971888400000
H                 -0.625896934100000         4.269967719400000        -1.055235937600000
N                  0.180651471100000         1.225978061300000         1.332355771700000
H                 -0.436942207800000         0.844501514100000         0.578747818600000
C                 -0.435327489700000         0.962292364200000         2.654109831600000
H                 -0.061640976300000         1.687348957600000         3.420415023600000
C                 -0.014679482600000        -0.399823676500000         3.170039843700000
O                  0.487617838700000        -0.482981893600000         4.275910697400000
C                 -1.969063199300000         1.081709242200000         2.565366925200000
H                 -2.420013581600000         0.982200856800000         3.575534168900000
H                 -2.252832793200000         2.072472353400000         2.148533695900000
H                 -2.397080298800000         0.290899836100000         1.912343932800000
N                 -0.186105353900000        -1.528603429600000         2.417733441500000
H                 -0.577769967600000        -1.417079922800000         1.453956733400000
C                  0.371657362600000        -2.832945830400000         2.811573889200000
H                  0.147730937100000        -3.027173440000000         3.888999834500000
C                  1.886601752700000        -2.863333246500000         2.676674838400000
O                  2.565212510900000        -3.220699569700000         3.622758546700000
C                 -0.293605086300000        -3.924847725900000         1.961252500300000
H                  0.076879834700000        -4.928738245500000         2.257818324500000
H                 -1.396266396800000        -3.892065207900000         2.094889660300000
H                 -0.081056922300000        -3.770259145300000         0.878819940800000
N                  2.493894767000000        -2.516356223600000         1.503913954700000
H                  1.880463377700000        -2.132402270600000         0.751791923400000
C                  3.955373017100000        -2.485740131000000         1.333465703400000
H                  4.393735341800000        -3.441526260200000         1.708094910800000
C                  4.594409552000000        -1.368607237800000         2.140459973700000
O                  5.578828210600000        -1.607532975500000         2.818391767000000
C                  4.270787745600000        -2.347921032100000        -0.162404195400000
H                  5.364548438400000        -2.436903357900000        -0.334346631300000
H                  3.747562934200000        -3.142958299700000        -0.738077985300000
H                  3.934685255200000        -1.359168155900000        -0.542349191000000
N                  4.083639588600000        -0.101743705300000         2.103883361100000
H                  3.253584779100000         0.051605748200000         1.486931358600000
C                  4.680665157500000         1.038577031400000         2.819378768200000
H                  5.739680458900000         1.166171238600000         2.487975519400000
C                  4.731301139800000         0.828325707300000         4.325538655700000
O                  5.758713863100000         1.088598861200000         4.925466415700000
C                  3.890522182200000         2.305731209200000         2.462424514000000
H                  4.320182513200000         3.189095326500000         2.981912295900000
H                  3.942034933800000         2.478905655000000         1.366409899100000
H                  2.823229012100000         2.200735943500000         2.759305618600000
N                  3.638323527400000         0.392248177300000         5.020122931800000
H                  2.839446566700000         0.022171800500000         4.458841647000000
C                  3.661955174100000         0.172477250300000         6.476924205600000
H                  4.286161731700000         0.963084911600000         6.958305755000000
C                  4.308470999000000        -1.147678655600000         6.879648173500000
O                  4.587576622600000        -1.325969210900000         8.052211321900000
C                  2.227323961800000         0.277757932000000         7.005738595500000
H                  2.217140225000000         0.203620723100000         8.113969488600000
H                  1.774382172600000         1.243381836000000         6.698298146000000
H                  1.605774035000000        -0.546635733100000         6.588763092100000
N                  4.586835347900000        -2.129439467900000         5.972673745000000
H                  4.332810170300000        -1.960664950500000         4.975075107000000
C                  5.366963682600000        -3.327127641700000         6.316087344400000
H                  4.970815372300000        -3.772491463600000         7.261056831900000
C                  6.823725735200000        -2.987879242500000         6.572083168200000
O                  7.353973127000000        -3.375475777000000         7.598479692700000
C                  5.220132611700000        -4.353644719100000         5.184188633600000
H                  5.781527070500000        -5.281103020000000         5.424664234000000
H                  4.146625115400000        -4.608390950700000         5.045293364400000
H                  5.599538407300000        -3.936583932900000         4.225962911300000
N                  7.544607256800000        -2.254791271600000         5.670070715500000
H                  7.027261264300000        -1.833779893500000         4.863294685900000
C                  8.989399831000000        -2.007313031200000         5.810915695300000
H                  9.441977000000000        -2.751114912000000         6.513137597300000
C                  9.312350750700000        -0.658145297800000         6.439845972200000
O                 10.478647861400001        -0.397463760600000         6.677256447500000
C                  9.632923921100000        -2.165514554100000         4.427454871300000
H                 10.735403471400000        -2.036817651500000         4.498490196600000
H                  9.413786055699999        -3.174990046200000         4.019472497800000
H                  9.231812294499999        -1.401050277200000         3.726886168300000
N                  8.338246292999999         0.242732359600000         6.779279796300000
H                  7.358809792500000         0.050074789900000         6.475789577000000
C                  8.609283800000000         1.481238818700000         7.530325138100000
H                  9.705831208499999         1.601649447200000         7.713910223500000
C                  7.994794079300000         1.479280522900000         8.926365933100000
O                  8.239016729899999         2.416999960300000         9.664985868100000
C                  8.110470282900000         2.660972692900000         6.687867074500000
H                  8.357052302700000         3.624720350600000         7.183244000100000
H                  8.586155733600000         2.635313407800000         5.684420161600000
H                  7.009506838800000         2.599632616200000         6.550782659600000
N                  7.194423385500000         0.460854478000000         9.375102426200000
H                  6.928675538200000        -0.297730553100000         8.711395228700001
C                  6.726303664400000         0.354684343800000        10.766883946300000
H                  7.215456048900000         1.129025133400000        11.410953081500001
C                  7.107057095900000        -0.985497378200000        11.375195186399999
O                  7.759342641200000        -1.014669411700000        12.400497015099999
C                  5.211166464500000         0.589524599000000        10.786798015700001
H                  4.829847943200000         0.563512423400000        11.829775563700000
H                  4.982031491900000         1.582063422600000        10.344375024500000
H                  4.682331185800000        -0.187262201400000        10.196875965200000
N                  6.729892330400000        -2.148915032000000        10.813662886600000
H                  6.204951222600000        -2.175019378700000         9.913573747399999
H                -11.080642691200000         0.719647549900000        -8.156162230500000
H                  7.052430562900000        -3.043156330800000        11.237200477100000
