7
Allene
C                  0.000000000000000         0.000000000000000         1.319869695000000
C                  0.000000000000000         0.000000000000000         0.000000000000000
C                  0.000000000000000         0.000000000000000        -1.319869695000000
H                  0.661453817000000        -0.661453817000000         1.860074122000000
H                 -0.661453817000000         0.661453817000000         1.860074122000000
H                  0.661453817000000         0.661453817000000        -1.860074122000000
H                 -0.661453817000000        -0.661453817000000        -1.860074122000000
