26
Benzidine
C                 -1.166247725000000         0.298922718000000         2.841446400000000
C                 -1.167928815000000         0.298187226000000         1.449484468000000
C                  0.000000000000000         0.000000000000000         0.703533649000000
C                  1.167928815000000        -0.298187226000000         1.449484468000000
C                  1.166247725000000        -0.298922718000000         2.841446400000000
C                  0.000000000000000         0.000000000000000         3.534542799000000
C                  0.000000000000000         0.000000000000000        -0.703533649000000
C                 -1.167928815000000        -0.298187226000000        -1.449484468000000
C                 -1.166247725000000        -0.298922718000000        -2.841446400000000
C                  0.000000000000000         0.000000000000000        -3.534542799000000
C                  1.166247725000000         0.298922718000000        -2.841446400000000
C                  1.167928815000000         0.298187226000000        -1.449484468000000
N                  0.000000000000000         0.000000000000000         4.857702732000000
N                  0.000000000000000         0.000000000000000        -4.857702732000000
H                 -2.079785824000000         0.540963173000000         3.367066145000000
H                 -2.093286753000000         0.568256557000000         0.960967779000000
H                  2.093286753000000        -0.568256557000000         0.960967779000000
H                  2.079785824000000        -0.540963173000000         3.367066145000000
H                 -2.093286753000000        -0.568256557000000        -0.960967779000000
H                 -2.079785824000000        -0.540963173000000        -3.367066145000000
H                  2.079785824000000         0.540963173000000        -3.367066145000000
H                  2.093286753000000         0.568256557000000        -0.960967779000000
H                  0.888156235000000        -0.227711841000000         5.315494537000000
H                 -0.888156235000000         0.227711841000000         5.315494537000000
H                 -0.888156235000000        -0.227711841000000        -5.315494537000000
H                  0.888156235000000         0.227711841000000        -5.315494537000000
