24
Caffeine
C                  0.842332006000000        -0.365486562000000         0.000000000000000
C                 -0.284101754000000        -1.196123600000000         0.000000000000000
N                  2.029481888000000        -1.104226470000000         0.000000000000000
N                  0.077474385000000        -2.535731792000000         0.000000000000000
N                 -1.647264600000000        -0.617795229000000         0.000000000000000
C                  1.453196287000000        -2.367841312000000         0.000000000000000
C                  0.637313187000000         1.173511267000000         0.000000000000000
C                 -1.781269193000000         0.768891633000000         0.000000000000000
N                 -0.677144468000000         1.630635500000000         0.000000000000000
O                  1.610675216000000         1.934969306000000         0.000000000000000
O                 -2.920289040000000         1.251005888000000         0.000000000000000
C                 -0.920246243000000         3.109450102000000         0.000000000000000
C                 -2.862393856000000        -1.482450366000000         0.000000000000000
C                  3.455215693000000        -0.681109428000000         0.000000000000000
H                  2.087815046000000        -3.245191336000000         0.000000000000000
H                 -1.498925209000000         3.422211647000000        -0.889788628000000
H                 -1.498925209000000         3.422211647000000         0.889788628000000
H                  0.007190567000000         3.714849949000000         0.000000000000000
H                 -3.490307093000000        -1.288893819000000        -0.890776336000000
H                 -3.490307093000000        -1.288893819000000         0.890776336000000
H                 -2.628953457000000        -2.563865423000000         0.000000000000000
H                  4.136021137000000        -1.552907944000000         0.000000000000000
H                  3.681705952000000        -0.068585098000000         0.893159747000000
H                  3.681705952000000        -0.068585098000000        -0.893159747000000
