18
1,5-difluoronapthalene
C                 -2.473576438000000         0.471485526000000         0.000000000000000
C                 -2.347914652000000        -0.911612134000000         0.000000000000000
C                 -1.093112124000000        -1.512183010000000         0.000000000000000
C                  0.065177256000000        -0.718437816000000         0.000000000000000
C                 -0.065177256000000         0.718437816000000         0.000000000000000
C                 -1.346128371000000         1.282366492000000         0.000000000000000
C                  1.346128371000000        -1.282366492000000         0.000000000000000
C                  2.473576438000000        -0.471485526000000         0.000000000000000
C                  2.347914652000000         0.911612134000000         0.000000000000000
C                  1.093112124000000         1.512183010000000         0.000000000000000
F                  1.024534764000000         2.878819158000000         0.000000000000000
F                 -1.024534764000000        -2.878819158000000         0.000000000000000
H                 -3.456384892000000         0.920007655000000         0.000000000000000
H                 -3.238705726000000        -1.523535006000000         0.000000000000000
H                 -1.487089775000000         2.354727437000000         0.000000000000000
H                  1.487089775000000        -2.354727437000000         0.000000000000000
H                  3.456384892000000        -0.920007655000000         0.000000000000000
H                  3.238705726000000         1.523535006000000         0.000000000000000
