16
Difuropyrazine
C                  1.294974446000000         0.529193699000000         0.000000000000000
C                  1.111546993000000        -0.873242915000000         0.000000000000000
N                 -0.202672482000000        -1.468623281000000         0.000000000000000
C                 -1.294974446000000        -0.529193699000000         0.000000000000000
C                 -1.111546993000000         0.873242915000000         0.000000000000000
N                  0.202672482000000         1.468623281000000         0.000000000000000
O                 -2.345309258000000         1.479812384000000         0.000000000000000
C                 -3.256400347000000         0.414059669000000         0.000000000000000
C                 -2.739650726000000        -0.822741449000000         0.000000000000000
C                  2.739650726000000         0.822741449000000         0.000000000000000
C                  3.256400347000000        -0.414059669000000         0.000000000000000
O                  2.345309258000000        -1.479812384000000         0.000000000000000
H                 -4.332195282000000         0.598304212000000         0.000000000000000
H                 -3.227204084000000        -1.797197461000000         0.000000000000000
H                  3.227204084000000         1.797197461000000         0.000000000000000
H                  4.332195282000000        -0.598304212000000         0.000000000000000
