23
Dimethylpentane
C                  1.770802379000000         1.042192578000000        -0.663051605000000
C                  1.049090266000000         0.399703056000000         0.541491807000000
C                 -0.324226022000000        -0.282200098000000         0.218994781000000
C                 -1.413260937000000         0.759975553000000        -0.163599983000000
C                 -2.866791487000000         0.259406745000000        -0.060530405000000
C                  2.033242702000000        -0.543339133000000         1.263152957000000
C                 -0.239709496000000        -1.411766410000000        -0.839294314000000
H                  1.129297853000000         1.779573917000000        -1.178528547000000
H                  2.071326971000000         0.290414333000000        -1.416128635000000
H                  2.687247515000000         1.579670668000000        -0.356086820000000
H                  0.839226544000000         1.217628479000000         1.260263443000000
H                 -0.661208630000000        -0.752582550000000         1.164861202000000
H                 -1.224501252000000         1.146752596000000        -1.183867931000000
H                 -1.321281314000000         1.646842122000000         0.493002474000000
H                 -3.074153662000000        -0.565123081000000        -0.767121851000000
H                 -3.586897373000000         1.066543579000000        -0.290283233000000
H                 -3.103950262000000        -0.108180046000000         0.955395579000000
H                  2.368291378000000        -1.374375582000000         0.615368068000000
H                  2.941883087000000        -0.009798108000000         1.599288702000000
H                  1.579694629000000        -0.995337605000000         2.164531708000000
H                 -1.200766563000000        -1.944414973000000        -0.954316258000000
H                  0.038153011000000        -1.024177551000000        -1.836572528000000
H                  0.508490503000000        -2.177408457000000        -0.566968262000000
