4
Hydroxysulphane
S                  0.609528735000000        -0.617353908000000         0.060665140000000
O                 -0.812615022000000        -0.252676211000000        -0.355499329000000
H                  1.371429756000000         0.472592421000000         0.040080213000000
H                 -1.168343470000000         0.397437699000000         0.254753975000000
