29
Menthone
C                  2.558061361000000        -1.064119458000000        -0.190272540000000
C                  2.269306421000000         0.453969300000000        -0.213433310000000
C                  0.781719685000000         0.768795133000000        -0.558325827000000
C                 -0.243761048000000         0.053365365000000         0.411179006000000
C                  0.158498675000000        -1.448944688000000         0.642969608000000
C                  1.644537568000000        -1.805857778000000         0.812562287000000
O                 -0.664429605000000        -2.361761332000000         0.725939155000000
C                  0.640474379000000         2.308393002000000        -0.598484516000000
C                 -1.757457256000000         0.320482492000000         0.064157277000000
C                 -2.720526457000000        -0.041874379000000         1.213082314000000
C                 -2.249140739000000        -0.342566162000000        -1.239100695000000
H                  2.417901039000000        -1.484740853000000        -1.206263781000000
H                  3.621572018000000        -1.248127699000000         0.056920871000000
H                  2.537174463000000         0.896134973000000         0.766759157000000
H                  2.945165873000000         0.936349332000000        -0.946361721000000
H                  0.598921597000000         0.390906006000000        -1.584649086000000
H                 -0.079844423000000         0.516107738000000         1.401818871000000
H                  1.772607803000000        -2.899373531000000         0.711964667000000
H                  1.935170889000000        -1.564401746000000         1.850588322000000
H                  1.405206442000000         2.780182600000000        -1.244104624000000
H                  0.736862898000000         2.761836290000000         0.405944467000000
H                 -0.333346993000000         2.627789021000000        -1.010396242000000
H                 -1.883566737000000         1.411220193000000        -0.069752194000000
H                 -2.752796888000000        -1.130102038000000         1.408669949000000
H                 -3.757847071000000         0.272846043000000         0.993897200000000
H                 -2.433248520000000         0.449246645000000         2.160811901000000
H                 -3.295603037000000        -0.070322104000000        -1.470841050000000
H                 -2.208213568000000        -1.446810007000000        -1.183879137000000
H                 -1.643397570000000        -0.038621821000000        -2.111399889000000
