17
Mesity1 oxide
C                 -1.636567712000000        -1.192528844000000         0.000000000000000
C                 -0.986504078000000         0.177000344000000         0.000000000000000
C                 -1.932485580000000         1.359942913000000         0.000000000000000
C                  0.344973713000000         0.373712450000000         0.000000000000000
C                  1.482798696000000        -0.639455438000000         0.000000000000000
C                  2.902534723000000        -0.093190588000000         0.000000000000000
O                  1.317293525000000        -1.858582377000000         0.000000000000000
H                 -1.334601760000000        -1.779131413000000        -0.887518883000000
H                 -1.334601760000000        -1.779131413000000         0.887518883000000
H                 -2.741251707000000        -1.156248927000000         0.000000000000000
H                 -1.794517040000000         2.001635551000000        -0.889301598000000
H                 -1.794517040000000         2.001635551000000         0.889301598000000
H                 -2.992251396000000         1.043859482000000         0.000000000000000
H                  0.684282005000000         1.410360694000000         0.000000000000000
H                  3.088498592000000         0.523640454000000         0.896341860000000
H                  3.088498592000000         0.523640454000000        -0.896341860000000
H                  3.638418198000000        -0.917158782000000         0.000000000000000
