17
Pterin
C                 -0.744697781000000        -0.676786106000000         0.000000000000000
C                 -0.566614337000000         0.756411477000000         0.000000000000000
N                 -1.959961654000000        -1.204854592000000         0.000000000000000
N                 -1.662929219000000         1.505293323000000         0.000000000000000
C                 -3.021508859000000        -0.420641970000000         0.000000000000000
C                 -2.873482345000000         0.976537664000000         0.000000000000000
C                  0.531294070000000        -1.594130270000000         0.000000000000000
N                  1.756598252000000        -1.017351547000000         0.000000000000000
C                  1.891187869000000         0.477832814000000         0.000000000000000
N                  0.856944747000000         1.248094421000000         0.000000000000000
O                  0.443495866000000        -2.823298875000000         0.000000000000000
N                  3.224117104000000         1.073953141000000         0.000000000000000
H                 -4.009720017000000        -0.856430609000000         0.000000000000000
H                 -3.743535003000000         1.616473838000000         0.000000000000000
H                  2.620102063000000        -1.571481318000000         0.000000000000000
H                  3.251766613000000         2.099594826000000         0.000000000000000
H                  4.006942632000000         0.410783784000000         0.000000000000000
