    18
Cyclohexane chair conformation - OPLS-AA optimized.
C            0.828952306640788        1.206594419121334       -0.235485579215146
H            1.408884682290103        2.050723895116392        0.139545445233576
H            0.868712785800819        1.264468268804285       -1.324151993183362
C            1.459417260851094       -0.114596875478568        0.235488502579751
H            1.529416216191918       -0.120094759047471        1.324154989227417
H            2.480421650433589       -0.194767863109885       -0.139540875224472
C            0.630465404587946       -1.321190524563500       -0.235488714882077
H            1.071536636560225       -2.245492288541878        0.139540482672265
H            0.660705835820529       -1.384558581734622       -1.324155280099029
C           -0.828952306640787       -1.206594419121334        0.235485579215146
H           -0.868712785800819       -1.264468268804285        1.324151993183362
H           -1.408884682290102       -2.050723895116394       -0.139545445233577
C           -1.459417260851094        0.114596875478569       -0.235488502579751
H           -2.480421650433589        0.194767863109884        0.139540875224472
H           -1.529416216191917        0.120094759047470       -1.324154989227417
C           -0.630465404587944        1.321190524563501        0.235488714882077
H           -0.660705835820529        1.384558581734622        1.324155280099029
H           -1.071536636560225        2.245492288541877       -0.139540482672265
