    22
bALA C7 equatorial configuration - MOL format.
C           -2.892061988183815       -0.279492209554218       -1.863556048604446
H           -3.161084731340698       -0.400828756383358       -2.913336431898231
H           -2.863905873630717       -1.267231611191745       -1.403606606876449
H           -3.668499844526976        0.313481757667127       -1.380427716274549
C           -1.539832933993501        0.405993527700902       -1.739916658625054
O           -0.903363325747157        0.711709540551469       -2.745977530932048
N           -1.088390672856806        0.640305914009548       -0.501825326498439
H           -1.649219868603040        0.332331317729145        0.275985818711654
C            0.188999962912148        1.275455106601272       -0.176069563912858
H            0.366297659240661        2.093540232939201       -0.877502156080292
C            0.108097422359761        1.884541422665221        1.235263325367887
H           -0.684188504799113        2.630176351927644        1.300794008493811
H           -0.079979888844222        1.121793776435493        1.992038704785088
H            1.044225746190169        2.379164365518402        1.498594790549256
C            1.361312727690565        0.286721131947217       -0.325288228369378
O            2.006051210269825       -0.081988451767382        0.654343713748246
N            1.621188914744540       -0.151292810327380       -1.560394617776086
H            1.002515721884889        0.178803004260494       -2.296493751656040
C            2.680053010389746       -1.090938652002621       -1.895270337289070
H            2.536491530993898       -2.036082891268358       -1.369595495621607
H            2.683945577900650       -1.290629560859383       -2.966739751783936
H            3.654986147946180       -0.688666506597693       -1.616085139458452
