    22
bALA C7 equatorial configuration - MOL format.
C           -3.103995751825955       -0.698554936817237       -0.692115576722676
H           -3.583081587895244       -1.508090115214787       -0.140401797210616
H           -3.789489122537168        0.148533522076061       -0.713978927891345
H           -2.930330204366713       -1.039796472435196       -1.712587583407085
C           -1.792338747784347       -0.309267455221960       -0.027251011964801
O           -1.409546448722957       -0.906714527942729        0.975443679298874
N           -1.103437431717968        0.690116543811225       -0.595583145443239
H           -1.502315772670717        1.091249671216237       -1.429323772639170
C            0.184780243172178        1.268139137523196       -0.185368672773026
H            0.378990429061360        2.062077292938991       -0.907991533210730
C            0.107379195271854        1.945967065288069        1.194751740123513
H           -0.658005281112781        2.721483430691974        1.212029331004874
H           -0.123217363781610        1.230128552100680        1.984485468941258
H            1.057641501216060        2.416756110621497        1.450645513298771
C            1.397382951119714        0.324376618166433       -0.292660431923256
O            2.420995069037229        0.709627046648201       -0.851439706255307
N            1.285389580485649       -0.900164829610666        0.227551830880067
H            0.391082746847135       -1.120935410872951        0.664173367897986
C            2.334080069796400       -1.907732604219360        0.207549342618338
H            3.221878954830217       -1.549645473376471        0.730771295116310
H            1.990849417995013       -2.819455477576419        0.696300307148970
H            2.615310553583654       -2.151097687794802       -0.817999716887711
