    18
Cyclohexane chair conformation - MOL format.
C            0.833121584811538        1.212662456747029       -0.234119003827293
H            1.409477333139857        2.051586520378559        0.150621349576558
H            0.868650144942438        1.264377580462124       -1.320688802604828
C            1.466756968480717       -0.115173133615096        0.234121630869598
H            1.529305558636604       -0.120085924012836        1.320691563033422
H            2.481464692115809       -0.194849743377783       -0.150616701561392
C            0.633636306673671       -1.327834863838145       -0.234121985209354
H            1.071987346399913       -2.246436837625440        0.150616269991280
H            0.660657881937722       -1.384459014174334       -1.320691989065362
C           -0.833121585419286       -1.212662455850270        0.234119003646643
H           -0.868650145345516       -1.264377579461332        1.320688802321911
H           -1.409477332226518       -2.051586522227220       -0.150621349173073
C           -1.466756967819905        0.115173133969562       -0.234121630523412
H           -2.481464691879899        0.194849742926488        0.150616702507708
H           -1.529305559440626        0.120085925024060       -1.320691563331138
C           -0.633636306940927        1.327834862772621        0.234121984548598
H           -0.660657882508929        1.384459014676888        1.320691989690625
H           -1.071987345565922        2.246436837213811       -0.150616270953667
