    62
Ratchet 
C              -4.568639519889      0.834643487206      6.181516212392
C              -3.321212969812     -1.498563708371      5.737485823298
H              -2.811395121061     -2.444119820223      5.552149131585
C              -3.133952766384      0.968222752914      5.589814864613
C              -2.583133296406      2.130967661515      5.004690100065
H              -3.129462510427      3.061553784978      4.998119927562
C              -1.317281682408      2.071661604968      4.384955734185
H              -0.887792566153      2.966995948039      3.959716864792
C              -0.628666793779      0.844752718312      4.277166961947
H               0.329430877718      0.806986992707      3.779594755959
C              -1.216838148497     -0.342696238925      4.756130014620
H              -0.732808766549     -1.295345469078      4.600997789791
C              -2.468134362764     -0.274584654974      5.395459589687
C              -4.341060957371     -0.064123398181      7.440813542326
C              -4.478393813839      0.340484411361      8.791326193330
H              -4.865488643100      1.313282578012      9.048629428133
C              -4.141620095110     -0.544762620932      9.836616227835
H              -4.284249880080     -0.240066223927     10.863147220675
C              -3.601316261680     -1.815046820722      9.551017287103
H              -3.330131677985     -2.481161373187     10.357065368293
C              -3.365927181721     -2.194705026119      8.215935610436
H              -2.886083857926     -3.135345899008      7.990343040044
C              -3.726760973303     -1.311719851859      7.181575939418
C              -5.200148548957     -0.051208995005      5.062735988296
C              -5.883771316577      0.455079256299      3.932089355049
H              -6.123761128118      1.503761265616      3.858364980363
C              -6.261311156608     -0.404352683130      2.880313684219
H              -6.855137306556     -0.021710445118      2.063461468084
C              -5.818563482675     -1.741705044022      2.864746382353
H              -6.081627732364     -2.388827305800      2.041031109148
C              -4.931024777383     -2.192714136837      3.859794813927
H              -4.457097351513     -3.158516716271      3.769362513225
C              -4.596093171087     -1.331095182635      4.921816735548
C              -5.277082715677      2.179358203443      6.561982658003
C              -4.464029494937      3.136095203280      7.222811190540
H              -3.496195515508      2.839679678355      7.601984660179
C              -4.807398385528      4.495977293596      7.267210926652
H              -4.132070027202      5.212970026421      7.710948782759
C              -5.969731627129      4.927924053806      6.616186361079
H              -6.178986445202      5.985224187218      6.541096784619
C              -6.849017634098      3.980963741282      6.059343703332
C              -6.620338503829      2.583088014838      6.225416206477
C              -7.732114638610      1.721841095502      5.938708466288
C              -7.931561302620      4.447685074158      5.288951950663
H              -8.063675666394      5.505084770258      5.111986555284
C              -8.790639134293      3.530507171256      4.666318847221
H              -9.562086324241      3.885105474856      3.998565600432
C              -8.699690055664      2.166781061716      4.995320295289
C              -8.839679598683     -0.476508076439      5.925995950560
C              -7.967075317206      0.456561208815      6.546758608897
C              -9.595754647980      1.255782158928      4.401205517303
H             -10.281156582843      1.582634725173      3.633260759921
C              -9.606987748476     -0.087288116053      4.812737774859
H             -10.285467921620     -0.785149178936      4.344967263507
C              -8.392254339737     -2.103170883358      7.689728609231
H              -8.521715531028     -3.089975634013      8.109192497155
C              -7.661656018247     -1.128258108645      8.392315615460
H              -7.230761298311     -1.360702969671      9.355158379264
C              -7.482790853845      0.152462838207      7.834773004438
H              -6.980867423585      0.914749979979      8.406221270839
C              -9.004402195114     -1.768314225350      6.467854285057
H              -9.629356112029     -2.494129616228      5.969012816389
