     9
Triazene
N           -0.095936847672891       -1.126469231913398       -0.011511649305531
N           -0.758301175405168        0.015634196586754       -0.029184698668827
N           -0.153475349977717        1.082090447469539       -0.194302251030226
H           -0.616899625411709       -1.844193573797223        0.451968162747919
H           -0.809582167241635        1.846164090792763       -0.280845445923127
H            2.375879497219958        0.766711904457421        0.791318444230987
O            2.640216717309270        0.037231254250186        0.222771102949129
H            2.514452451763050        0.389080087135091       -0.664229306826235
H            0.903646499416841       -1.166249174981137        0.114015641825911
