8
Ethane
C                  0.000000000000000         0.000000000000000         0.769840240000000
C                  0.000000000000000         0.000000000000000        -0.769840240000000
H                  0.889464378000000         0.513532519000000         1.134849072000000
H                  0.000000000000000        -1.027065039000000         1.134849072000000
H                 -0.889464378000000         0.513532519000000         1.134849072000000
H                  0.889464378000000        -0.513532519000000        -1.134849072000000
H                  0.000000000000000         1.027065039000000        -1.134849072000000
H                 -0.889464378000000        -0.513532519000000        -1.134849072000000
