6
Ethene
C                  0.662730579620661         0.000000000000000         0.000000000000000
C                 -0.662730579620661        -0.000000000000000        -0.000000000000000
H                  1.248679509386369        -0.915898573613694        -0.000000000000000
H                  1.248679509386368         0.915898573613693        -0.000000000000000
H                 -1.248679509386369        -0.915898573613692         0.000000000000000
H                 -1.248679509386367         0.915898573613693        -0.000000000000000
