     6
AM1 optimized F-:CH3Cl complex (Charge = -1). 
C           -0.334740492551891       -0.000007643389900        0.000002180820776
H           -0.618344411571674        1.067133840788202        0.000085450951338
H           -0.618331716133514       -0.533659796191787        0.924130404371447
H           -0.618312043565020       -0.533509614658281       -0.924219189749238
Cl           1.520304217721439        0.000018954381328        0.000022850773796
F           -2.630575553899341        0.000024259070439       -0.000021697168117
