4
Formaldehyde
C                  0.605520976319727        -0.000000000000000         0.000000000000000
O                 -0.603673550496617         0.000000000000000        -0.000000000000000
H                  1.183355238029714        -0.934361558987545        -0.000000000000000
H                  1.183355238029715         0.934361558987546        -0.000000000000000
