10
Glycine
O                 -0.500845160228828         1.252210928200248         0.000019005082797
N                  1.966424719644522         0.071919528958877        -0.000035426440818
H                  1.991041924073735         0.640907166524658         0.809265195073658
C                  0.784319512466572        -0.795606187868812         0.000049063461954
H                  0.833105000584712        -1.471208571292935        -0.885043727714971
H                  0.833119425384621        -1.471052625230989         0.885269505921997
C                 -0.564457119218691        -0.096408529503167         0.000008372278562
O                 -1.655109226569271        -0.644638338672461        -0.000033223720008
H                  1.991013522179807         0.640770502368459        -0.809456542665739
H                 -1.372144100061566         1.646531714224881        -0.000000860647018
