7
Methylamine
C                  0.741159991334393        -0.000000000000000        -0.011830982773529
N                 -0.727414086026546         0.000000000000000         0.067263250352596
H                  1.151213897149438        -0.000000000000000        -1.033592470797210
H                  1.146729853210247         0.882488505244181         0.500784468356369
H                  1.146729853210247        -0.882488505244180         0.500784468356370
H                 -1.084105248899563        -0.806455791235128        -0.380854234218180
H                 -1.084105248899562         0.806455791235127        -0.380854234218180
