7
Nitromethane
C                  1.421527545209837         0.027127221082617        -0.000000002862866
N                 -0.098570571617490         0.001034041941185        -0.000000596910640
O                 -0.640866113750288        -1.081321242282785         0.000000128646831
O                 -0.691146017210745         1.055916324240066         0.000000147752201
H                  1.856545088845459        -0.487509649149825         0.873525338156785
H                  1.860723789117354         1.040666770483778        -0.000006757854862
H                  1.856550960576483        -0.487523375226275        -0.873514638682902
