112
Zwitterionic Serine Octamer - L8.
O                 -4.155958664371943        -0.763850897809548        -1.622934471780057
C                 -3.716149984981415        -1.879141075479437        -2.013902575038621
O                 -4.316222111949314        -2.878828370195657        -1.539329376242381
C                 -2.249174740900992        -1.961481495759670        -2.448961608168081
N                 -1.300609160459554        -1.045442981616480        -1.646918851169132
H                 -1.631682820873076        -0.057676872159114        -1.612839434576206
H                 -1.259488197713133        -1.334055101769588        -0.646999396133903
H                 -0.323593034614218        -1.030041155923690        -2.011882177636022
H                 -2.221948707881263        -1.619337667174984        -3.483440094155267
C                 -1.755234396170540        -3.422404218217592        -2.425773711643477
H                 -2.341433104886601        -4.025678832854440        -3.121657789158849
H                 -1.862845407528929        -3.847814752185828        -1.427382351604479
O                 -0.374413669501602        -3.471655064976092        -2.804775973741136
H                  0.177409869952355        -3.120104717328736        -2.078584106828551
O                  1.268370905163514        -2.197103792550623        -1.141581392815262
C                  1.919301265814175        -1.508946470334089        -1.977351583447601
O                  1.349484611999446        -0.453959065373104        -2.357524197808487
C                  3.353891710087640        -1.848862461906112        -2.392910623058320
N                  4.476561721491413        -1.237241465977523        -1.527910614552053
H                  4.400234298748476        -1.569676130433476        -0.537485717046738
H                  5.389066885805731        -1.571966526185284        -1.866668690643463
H                  4.430332941102315        -0.190948237524860        -1.510409683633244
H                  3.478778744139978        -1.406529380766372        -3.381760500648945
C                  3.534772103164773        -3.378358655452871        -2.568984277196752
H                  3.408888385048731        -3.649918368319255        -3.618414194024330
H                  2.801925721064447        -3.943586406105411        -1.991065898406036
O                  4.842084936818154        -3.771879048107554        -2.123012715842536
H                  4.800258975043760        -3.808754268850082        -1.138751876899240
O                 -4.154900551548710         0.764721909381251         1.623159445700652
C                 -3.714903935362904         1.879917706248925         2.014210143353185
O                 -4.315025823853815         2.879727832488716         1.539962468528129
C                 -2.247843686973731         1.962091280688967         2.449060680408926
N                 -1.299520209402363         1.045785901878018         1.647031740003568
H                 -1.258604310017148         1.334245969933203         0.647062996095985
H                 -0.322438276876912         1.030315091883825         2.011826855106174
H                 -1.630798497294458         0.058077340672677         1.613145510421772
H                 -2.220528830975125         1.620133853365025         3.483597659079201
C                 -1.753683772009655         3.422931213642499         2.425511067215307
H                 -2.339906124295550         4.026516557943614         3.121106380303233
H                 -1.861073886108914         3.848034005968684         1.426963844749255
O                 -0.372925382902369         3.472089765792838         2.804748358770295
H                  0.178991344001703         3.120301391519737         2.078739005602652
O                  1.350666068995187         0.453823849676300         2.357767731895410
C                  1.920585825109280         1.508796925597254         1.977685390952634
O                  1.269698028180198         2.197040588271493         1.141958051820768
C                  3.355489286776699         1.847986311898108         2.392801208477790
N                  4.477582958784632         1.236215799539751         1.527161973695695
H                  5.390347858852048         1.570581036444895         1.865575832833186
H                  4.430998638208621         0.189946039342846         1.509470234670864
H                  4.400900220179628         1.568897744933512         0.536845181297587
H                  3.480586743160172         1.405284629998301         3.381459802992886
C                  3.537041307391395         3.377359870164611         2.569285275296511
H                  3.412375620796214         3.648520537105706         3.618962302945389
H                  2.803723233000071         3.943038991529446         1.992405331632308
O                  4.844011860891007         3.770695005965316         2.122128794060872
H                  4.801344497743776         3.807629397170711         1.137899017617336
O                  4.344995278690050         3.420542264284254        -0.438279841087813
C                  3.782071000643571         2.693560411781684        -1.296980092673484
O                  4.100225818589318         1.470825565321595        -1.240782709136651
C                  2.463889789154394         3.099606736171370        -1.972873423634393
N                  1.262533002166429         2.199765656902512        -1.629190895854963
H                  0.362652694205016         2.571229080387456        -1.997327430367759
H                  1.387538572996473         1.223398156042208        -1.978653746493986
H                  1.146223716143391         2.146849635359229        -0.594496134880708
H                  2.637720586428344         3.008532221467965        -3.045100373838737
C                  2.114506003453849         4.571924506779042        -1.686366971578666
H                  2.961965452637164         5.212377533975555        -1.937883371783375
H                  1.881643954724647         4.710398392610572        -0.629038445666601
O                  0.987310091956066         4.961680491037899        -2.491052314874010
H                  0.168336050478240         4.482584800912134        -2.247265342930171
O                 -1.651238239827916         1.597221286476353        -1.032561834460198
C                 -2.060423879553686         2.659148531206924        -1.580126355338010
O                 -1.175459466825852         3.451960731054863        -1.996497623039273
C                 -3.561421393786139         2.946016656572000        -1.705029994173295
N                 -4.536472864212675         1.903364581735967        -1.091655421330981
H                 -4.441395834715034         1.868221674432777        -0.051020083329519
H                 -5.510835892730572         2.183758868879618        -1.260244017935555
H                 -4.372219602877528         0.921034079557988        -1.417412110786391
H                 -3.764482191794087         2.947899807709065        -2.775893416202333
C                 -3.855335875373321         4.374413983041000        -1.184954419130689
H                 -3.892585498440365         5.074194563015750        -2.021674734683296
H                 -3.070752433849723         4.713036937973894        -0.506083520523992
O                 -5.104842203488232         4.402267913294546        -0.476046375455530
H                 -4.956292701104641         3.968518554031240         0.394217960465593
O                  4.344742909953531        -3.421459920983096         0.437769677768138
C                  3.781856658612122        -2.694391787104221         1.296423700145112
O                  4.100037460615005        -1.471670375010360         1.240106221190121
C                  2.463732636492909        -3.100367395447426         1.972483605898100
N                  1.262537649655193        -2.199983139097867         1.629596674296490
H                  1.388086535669868        -1.223698938462531         1.979123019903587
H                  1.145691016388226        -2.146860076593133         0.594972194426242
H                  0.362699558887759        -2.571217142785692         1.998068202390886
H                  2.637906406614934        -3.009910857727257         3.044708137266054
C                  2.113816625717642        -4.572432341710960         1.685296704178056
H                  2.961096762426953        -5.213291766790340         1.936386386418621
H                  1.880782751923433        -4.710295418942986         0.627926928372622
O                  0.986597495971900        -4.962253053919115         2.489919051854094
H                  0.167737830042511        -4.482760729569891         2.246517622154125
O                 -1.651358194681414        -1.596756296425613         1.032816067583382
C                 -2.060635243500710        -2.658599403886950         1.580473070923319
O                 -1.175751750406517        -3.451507941715934         1.996831985521549
C                 -3.561662987466993        -2.945267901992475         1.705518857094518
N                 -4.536648426918854        -1.902494047679986         1.092235743782886
H                 -4.441957399261655        -1.867654642132475         0.051557611441724
H                 -5.511032637612558        -2.182551110096622         1.261245218672102
H                 -4.371960367691866        -0.920131077738028         1.417688795052609
H                 -3.764618333991073        -2.947092737251904         2.776398142108757
C                 -3.855782437115413        -4.373657855269056         1.185539631617426
H                 -3.892956662772941        -5.073402181491750         2.022294592031202
H                 -3.071329412033701        -4.712375541680967         0.506560879117734
O                 -5.105414820512145        -4.401439893110715         0.476856860106083
H                 -4.957053177536793        -3.967649860497515        -0.393417737196806
