33
Tyrosine dipeptide
C         -1.02800        3.41800       -0.50600
C         -1.22800        1.98700       -0.08100
O         -1.69900        1.73700        1.00900
N         -0.88300        0.98300       -0.91200
C         -1.07700       -0.40900       -0.49800
H         -0.74300       -1.07500       -1.29400
C         -0.26500       -0.68300        0.76900
C          1.20500       -0.56000        0.46100
C          1.83900        0.66100        0.59600
C          3.18600        0.77600        0.31300
C          3.90300       -0.33500       -0.10600
O          5.22900       -0.22400       -0.38500
C          3.26500       -1.55900       -0.24100
C          1.91800       -1.67000        0.04800
C         -2.53800       -0.65200       -0.22100
O         -3.27700        0.28400        0.00200
N         -3.02500       -1.90900       -0.22100
C         -4.44500       -2.14400        0.04800
H         -0.03500        3.75200       -0.20300
H         -1.12100        3.49200       -1.59000
H         -1.78300        4.04700       -0.03300
H         -0.50600        1.18200       -1.78300
H         -0.53700        0.04000        1.53800
H         -0.47800       -1.69000        1.12700
H          1.28000        1.52600        0.92300
H          3.68100        1.73100        0.41900
H          5.70300       -0.40400        0.43900
H          3.82100       -2.42500       -0.56800
H          1.42100       -2.62300       -0.05600
H         -2.43400       -2.65700       -0.40000
H         -4.65100       -3.21400        0.00600
H         -4.69500       -1.76600        1.03900
H         -5.04800       -1.62900       -0.70000
