    22
bALA C5 configuration (OPLS-AA force field)
C           -3.339000000000000        1.135000000000000       -0.095000000000000
H           -3.929000000000000        1.964000000000000        0.298000000000000
H           -3.877000000000000        0.209000000000000        0.103000000000000
H           -3.246000000000000        1.265000000000000       -1.174000000000000
C           -1.966000000000000        1.105000000000000        0.559000000000000
O           -1.666000000000000        1.940000000000000        1.408000000000000
N           -1.133000000000000        0.138000000000000        0.167000000000000
H           -1.392000000000000       -0.462000000000000       -0.605000000000000
C            0.254000000000000       -0.003000000000000        0.588000000000000
H            0.659000000000000        0.966000000000000        0.886000000000000
C            0.323000000000000       -0.992000000000000        1.764000000000000
H           -0.064000000000000       -1.973000000000000        1.486000000000000
H           -0.262000000000000       -0.631000000000000        2.611000000000000
H            1.348000000000000       -1.126000000000000        2.110000000000000
C            1.056000000000000       -0.525000000000000       -0.610000000000000
O            0.484000000000000       -1.090000000000000       -1.543000000000000
N            2.382000000000000       -0.368000000000000       -0.566000000000000
H            2.780000000000000        0.099000000000000        0.235000000000000
C            3.283000000000000       -0.823000000000000       -1.616000000000000
H            3.205000000000000       -1.904000000000000       -1.750000000000000
H            3.041000000000000       -0.345000000000000       -2.567000000000000
H            4.316000000000000       -0.583000000000000       -1.365000000000000
