8
Allyl Radical - Geometry from L. Castiglioni et al., PCCP 2006, 8, 2591 - 2598 (Multiplicity = 2).
C 0.000000  0.000000  0.453087
C 0.000000  1.236422 -0.199983
C 0.000000 -1.236422 -0.199983
H 0.000000  1.292722 -1.295402
H 0.000000  0.000000  1.552138
H 0.000000  2.176963  0.359971
H 0.000000 -1.292722 -1.295402
H 0.000000 -2.176963  0.359971
